[General]
repeat = 500
warmup-period = 100s
sim-time-limit = 1000s #100000s
description = "Simple MM1 Simlulation"

[Config MM1]
network = mg1
**.source.interArrivalTime = exponential(${meanInterArrivalTime=1.0}s)
**.server.serviceTime = exponential(${meanServiceTime=0.8}s) # 0.5..0.9 step 0.1}s) 
**.server.serviceTime.result-recording-modes = vector 
**.server.queueingTime.result-recording-modes = vector 
**.server.waitingTime.result-recording-modes = vector 
**.server.queueLength.result-recording-modes = vector 
**.server.nCustomers.result-recording-modes = vector 
